*Heading
** Job name: Delamination0 Model name: Delamination
** Generated by: Abaqus/CAE 2024
*Preprint, echo=NO, model=NO, history=NO, contact=NO
**
** PARTS
**
*Part, name=Panel1
*Node
      1,           0.,           0.
      2,           2.,           0.
      3,           4.,           0.
      4,           6.,           0.
      5,           8.,           0.
      6,          10.,           0.
      7,          12.,           0.
      8,          14.,           0.
      9,          16.,           0.
     10,          18.,           0.
     11,          20.,           0.
     12,          22.,           0.
     13,          24.,           0.
     14,          26.,           0.
     15,          28.,           0.
     16,          30.,           0.
     17,          32.,           0.
     18,          34.,           0.
     19,          36.,           0.
     20,          38.,           0.
** ... 1091 like lines cut
*Element, type=DC2D4
   1,    1,    2,  103,  102
   2,    2,    3,  104,  103
   3,    3,    4,  105,  104
   4,    4,    5,  106,  105
   5,    5,    6,  107,  106
   6,    6,    7,  108,  107
   7,    7,    8,  109,  108
   8,    8,    9,  110,  109
   9,    9,   10,  111,  110
  10,   10,   11,  112,  111
  11,   11,   12,  113,  112
  12,   12,   13,  114,  113
  13,   13,   14,  115,  114
  14,   14,   15,  116,  115
  15,   15,   16,  117,  116
  16,   16,   17,  118,  117
  17,   17,   18,  119,  118
  18,   18,   19,  120,  119
  19,   19,   20,  121,  120
  20,   20,   21,  122,  121
** ... 980 like lines cut
*Nset, nset=Set-1, generate
    1,  1111,     1
*Elset, elset=Set-1, generate
    1,  1000,     1
** Section: Beam
*Solid Section, elset=Set-1, material=Timber-Heat
,
*End Part
**  
*Part, name=Panel2
*Node
      1,           0.,           0.
      2,           2.,           0.
      3,           4.,           0.
      4,           6.,           0.
      5,           8.,           0.
      6,          10.,           0.
      7,          12.,           0.
      8,          14.,           0.
      9,          16.,           0.
     10,          18.,           0.
     11,          20.,           0.
     12,          22.,           0.
     13,          24.,           0.
     14,          26.,           0.
     15,          28.,           0.
     16,          30.,           0.
     17,          32.,           0.
     18,          34.,           0.
     19,          36.,           0.
     20,          38.,           0.
** ... 1091 like lines cut
*Element, type=DC2D4
   1,    1,    2,  103,  102
   2,    2,    3,  104,  103
   3,    3,    4,  105,  104
   4,    4,    5,  106,  105
   5,    5,    6,  107,  106
   6,    6,    7,  108,  107
   7,    7,    8,  109,  108
   8,    8,    9,  110,  109
   9,    9,   10,  111,  110
  10,   10,   11,  112,  111
  11,   11,   12,  113,  112
  12,   12,   13,  114,  113
  13,   13,   14,  115,  114
  14,   14,   15,  116,  115
  15,   15,   16,  117,  116
  16,   16,   17,  118,  117
  17,   17,   18,  119,  118
  18,   18,   19,  120,  119
  19,   19,   20,  121,  120
  20,   20,   21,  122,  121
** ... 980 like lines cut
*Nset, nset=Set-1, generate
    1,  1111,     1
*Elset, elset=Set-1, generate
    1,  1000,     1
** Section: Beam
*Solid Section, elset=Set-1, material=Timber-Heat
,
*End Part
**  
*Part, name=Panel3
*Node
      1,           0.,          40.
      2,           2.,          40.
      3,           4.,          40.
      4,           6.,          40.
      5,           8.,          40.
      6,          10.,          40.
      7,          12.,          40.
      8,          14.,          40.
      9,          16.,          40.
     10,          18.,          40.
     11,          20.,          40.
     12,          22.,          40.
     13,          24.,          40.
     14,          26.,          40.
     15,          28.,          40.
     16,          30.,          40.
     17,          32.,          40.
     18,          34.,          40.
     19,          36.,          40.
     20,          38.,          40.
** ... 1091 like lines cut
*Element, type=DC2D4
   1,    1,    2,  103,  102
   2,    2,    3,  104,  103
   3,    3,    4,  105,  104
   4,    4,    5,  106,  105
   5,    5,    6,  107,  106
   6,    6,    7,  108,  107
   7,    7,    8,  109,  108
   8,    8,    9,  110,  109
   9,    9,   10,  111,  110
  10,   10,   11,  112,  111
  11,   11,   12,  113,  112
  12,   12,   13,  114,  113
  13,   13,   14,  115,  114
  14,   14,   15,  116,  115
  15,   15,   16,  117,  116
  16,   16,   17,  118,  117
  17,   17,   18,  119,  118
  18,   18,   19,  120,  119
  19,   19,   20,  121,  120
  20,   20,   21,  122,  121
** ... 980 like lines cut
*Nset, nset=Set-1, generate
    1,  1111,     1
*Elset, elset=Set-1, generate
    1,  1000,     1
** Section: Beam
*Solid Section, elset=Set-1, material=Timber-Heat
,
*End Part
**  
*Part, name=Panel4
*Node
      1,           0.,          60.
      2,           2.,          60.
      3,           4.,          60.
      4,           6.,          60.
      5,           8.,          60.
      6,          10.,          60.
      7,          12.,          60.
      8,          14.,          60.
      9,          16.,          60.
     10,          18.,          60.
     11,          20.,          60.
     12,          22.,          60.
     13,          24.,          60.
     14,          26.,          60.
     15,          28.,          60.
     16,          30.,          60.
     17,          32.,          60.
     18,          34.,          60.
     19,          36.,          60.
     20,          38.,          60.
** ... 1091 like lines cut
*Element, type=DC2D4
   1,    1,    2,  103,  102
   2,    2,    3,  104,  103
   3,    3,    4,  105,  104
   4,    4,    5,  106,  105
   5,    5,    6,  107,  106
   6,    6,    7,  108,  107
   7,    7,    8,  109,  108
   8,    8,    9,  110,  109
   9,    9,   10,  111,  110
  10,   10,   11,  112,  111
  11,   11,   12,  113,  112
  12,   12,   13,  114,  113
  13,   13,   14,  115,  114
  14,   14,   15,  116,  115
  15,   15,   16,  117,  116
  16,   16,   17,  118,  117
  17,   17,   18,  119,  118
  18,   18,   19,  120,  119
  19,   19,   20,  121,  120
  20,   20,   21,  122,  121
** ... 980 like lines cut
*Nset, nset=Set-1, generate
    1,  1111,     1
*Elset, elset=Set-1, generate
    1,  1000,     1
** Section: Beam
*Solid Section, elset=Set-1, material=Timber-Heat
,
*End Part
**  
*Part, name=Panel5
*Node
      1,           0.,          80.
      2,           2.,          80.
      3,           4.,          80.
      4,           6.,          80.
      5,           8.,          80.
      6,          10.,          80.
      7,          12.,          80.
      8,          14.,          80.
      9,          16.,          80.
     10,          18.,          80.
     11,          20.,          80.
     12,          22.,          80.
     13,          24.,          80.
     14,          26.,          80.
     15,          28.,          80.
     16,          30.,          80.
     17,          32.,          80.
     18,          34.,          80.
     19,          36.,          80.
     20,          38.,          80.
** ... 1091 like lines cut
*Element, type=DC2D4
   1,    1,    2,  103,  102
   2,    2,    3,  104,  103
   3,    3,    4,  105,  104
   4,    4,    5,  106,  105
   5,    5,    6,  107,  106
   6,    6,    7,  108,  107
   7,    7,    8,  109,  108
   8,    8,    9,  110,  109
   9,    9,   10,  111,  110
  10,   10,   11,  112,  111
  11,   11,   12,  113,  112
  12,   12,   13,  114,  113
  13,   13,   14,  115,  114
  14,   14,   15,  116,  115
  15,   15,   16,  117,  116
  16,   16,   17,  118,  117
  17,   17,   18,  119,  118
  18,   18,   19,  120,  119
  19,   19,   20,  121,  120
  20,   20,   21,  122,  121
** ... 980 like lines cut
*Nset, nset=Set-1, generate
    1,  1111,     1
*Elset, elset=Set-1, generate
    1,  1000,     1
** Section: Beam
*Solid Section, elset=Set-1, material=Timber-Heat
,
*End Part
**  
**
** ASSEMBLY
**
*Assembly, name=Assembly
**  
*Instance, name=Panel1-1, part=Panel1
*End Instance
**  
*Instance, name=Panel2-1, part=Panel2
          0.,          20.,           0.
*End Instance
**  
*Instance, name=Panel3-1, part=Panel3
*End Instance
**  
*Instance, name=Panel4-1, part=Panel4
*End Instance
**  
*Instance, name=Panel5-1, part=Panel5
*End Instance
**  
*Nset, nset=Wholeset, instance=Panel1-1, generate
    1,  1111,     1
*Nset, nset=Wholeset, instance=Panel4-1, generate
    1,  1111,     1
*Nset, nset=Wholeset, instance=Panel2-1, generate
    1,  1111,     1
*Nset, nset=Wholeset, instance=Panel3-1, generate
    1,  1111,     1
*Elset, elset=Wholeset, instance=Panel1-1, generate
    1,  1000,     1
*Elset, elset=Wholeset, instance=Panel4-1, generate
    1,  1000,     1
*Elset, elset=Wholeset, instance=Panel2-1, generate
    1,  1000,     1
*Elset, elset=Wholeset, instance=Panel3-1, generate
    1,  1000,     1
*Elset, elset=_Bottom_1_S1, internal, instance=Panel1-1, generate
   1,  100,    1
*Surface, type=ELEMENT, name=Bottom_1
_Bottom_1_S1, S1
*Elset, elset=_Bottom_2_S1, internal, instance=Panel2-1, generate
   1,  100,    1
*Surface, type=ELEMENT, name=Bottom_2
_Bottom_2_S1, S1
*Elset, elset=_Bottom_3_S1, internal, instance=Panel3-1, generate
   1,  100,    1
*Surface, type=ELEMENT, name=Bottom_3
_Bottom_3_S1, S1
*Elset, elset=_Bottom_4_S1, internal, instance=Panel4-1, generate
   1,  100,    1
*Surface, type=ELEMENT, name=Bottom_4
_Bottom_4_S1, S1
*Elset, elset=_Bottom_5_S1, internal, instance=Panel5-1, generate
   1,  100,    1
*Surface, type=ELEMENT, name=Bottom_5
_Bottom_5_S1, S1
*Elset, elset=_Top_1_S3, internal, instance=Panel1-1, generate
  901,  1000,     1
*Surface, type=ELEMENT, name=Top_1
_Top_1_S3, S3
*Elset, elset=_Top_2_S3, internal, instance=Panel2-1, generate
  901,  1000,     1
*Surface, type=ELEMENT, name=Top_2
_Top_2_S3, S3
*Elset, elset=_Top_3_S3, internal, instance=Panel3-1, generate
  901,  1000,     1
*Surface, type=ELEMENT, name=Top_3
_Top_3_S3, S3
*Elset, elset=_Top_4_S3, internal, instance=Panel4-1, generate
  901,  1000,     1
*Surface, type=ELEMENT, name=Top_4
_Top_4_S3, S3
** Constraint: Constraint-1
*Tie, name=Constraint-1, adjust=yes
Bottom_2, Top_1
** Constraint: Constraint-2
*Tie, name=Constraint-2, adjust=yes
Bottom_3, Top_2
** Constraint: Constraint-3
*Tie, name=Constraint-3, adjust=yes
Bottom_4, Top_3
** Constraint: Constraint-4
*Tie, name=Constraint-4, adjust=yes
Bottom_5, Top_4
*End Assembly
*Amplitude, name=DHP10
             0.,             20.,              5.,            538.,             12.,            694.,             75.,            100.
           120.,             80.,            180.,             60.
*Amplitude, name=Film
             0.,              1.,             10.,              1.,            10.5,              1.,            480.,              1.
*Amplitude, name=ISO
             0.,             20.,              5.,            538.,             10.,            704.,             15.,            760.
            20.,            795.,             25.,            821.,             30.,            843.,             35.,            862.
            40.,            878.,             45.,            892.,             50.,            905.,             55.,            916.
            60.,            927.,             65.,            937.,             70.,            946.,             75.,            955.
            80.,            963.,             85.,            971.,             90.,            978.,             95.,            985.
           100.,            991.,            105.,            996.,            110.,           1001.,            115.,           1006.
           120.,           1010.,            130.,           1017.,            140.,           1024.,            150.,           1031.
           160.,           1038.,            170.,           1045.,            180.,           1052.,            190.,           1059.
           200.,           1066.,            210.,           1072.,            220.,           1079.,            230.,           1086.
           240.,           1093.,            250.,           1100.,            260.,           1107.,            270.,           1114.
*Amplitude, name=ISO-cooling
             0.,             20.,              5.,            538.,             10.,            704.,             15.,            760.
            20.,            795.,             25.,            821.,             30.,            843.,             35.,            862.
            40.,            878.,             45.,            892.,             50.,            905.,             55.,            916.
            60.,            927.,             61.,            899.,             66.,            695.,             72.,            576.
            84.,            459.,             96.,            389.,            108.,            340.,            132.,            267.
           144.,            244.,            168.,            209.,            192.,            173.,            228.,            143.
           264.,            116.,            324.,             91.,            384.,             76.,            468.,             65.
*Amplitude, name=Radiation
             0.,              1.,             10.,              1.,            10.5,             0.8,            480.,             0.8
** 
** MATERIALS
** 
*Material, name=Timber-Heat
*Conductivity
 7.2,  20.
  9., 200.
 4.2, 350.
 5.4, 500.
 21., 800.
 90.,1200.
*Density
 5.04e-10, 20.
 5.04e-10, 99.
  4.5e-10,120.
  4.5e-10,200.
 4.19e-10,250.
 3.42e-10,300.
 2.34e-10,350.
 1.71e-10,400.
 1.26e-10,600.
  1.2e-10,800.
*Expansion, zero=20.
 4e-06,
*Specific Heat
 1.53e+09,  20.
 1.77e+09,  99.
 2.72e+10, 110.
 2.12e+09, 121.
    2e+09, 200.
 1.62e+09, 250.
    1e+09, 300.
    1e+09, 350.
    1e+09, 400.
  1.4e+09, 600.
 1.65e+09, 800.
 1.65e+09,1200.
** 
** INTERACTION PROPERTIES
** 
*Surface Interaction, name=IntProp-1
1.,
*Gap Conductance
 7.2,0.
  0.,1.
** 
** PHYSICAL CONSTANTS
** 
*Physical Constants, absolute zero=-273.16, stefan boltzmann=3.40182e-09
** 
** PREDEFINED FIELDS
** 
** Name: Predefined Field-1   Type: Temperature
*Initial Conditions, type=TEMPERATURE
Wholeset, 20.
** ----------------------------------------------------------------
** 
** STEP: Step-1
** 
*Step, name=Step-1, nlgeom=NO, inc=10000
*Heat Transfer, end=PERIOD, deltmx=800.
0.1, 32., 1e-09, 1., 
** 
** INTERACTIONS
** 
** Interaction: Int-1
*Sfilm, amplitude=ISO
Bottom_1, F, 1., 1.5
** Interaction: Int-2
*Sradiate, amplitude=ISO
Bottom_1, R, 1., 0.8
** 
** OUTPUT REQUESTS
** 
*Restart, write, frequency=1
** 
** FIELD OUTPUT: F-Output-1
** 
*Output, field
*Node Output
NT, 
*Element Output, directions=YES
TEMP, 
*Output, history, frequency=0
*End Step
** ----------------------------------------------------------------
** 
** STEP: Step-2
** 
*Step, name=Step-2, nlgeom=NO, inc=10000
*Heat Transfer, end=PERIOD, deltmx=800.
0.1, 1., 1e-09, 1., 
** 
** INTERACTIONS
** 
** Interaction: Int-3
*Model Change, activate
** 
** OUTPUT REQUESTS
** 
*Restart, write, frequency=1
** 
** FIELD OUTPUT: F-Output-1
** 
*Output, field
*Node Output
NT, 
*Element Output, directions=YES
TEMP, 
*Output, history, frequency=0
*End Step
